!PBE0 D3 nousesym RIJCOSX def2-SV(P)  def2/J def2-SVP/C miniprint TightSCF ENGRAD
!moread
%moinp "orca.gbw"
%base "orca_tmp"
%pal nprocs 4 end
* xyz 0 1
 C        1.5559718827        0.8498114873       -0.3295245167
 C        0.5631234937        1.7565000615        0.2454355334
 C       -0.9634017248        1.4430037533        0.0107146352
 C       -1.3861894386       -0.1556017854        0.0990911339
 C       -0.1836603944       -1.0279573986        0.1126948936
 C        1.1712614003       -0.6740000781       -0.2205309563
 O        2.0657310240       -1.4633461074       -0.1480412261
 N       -2.7472183606       -0.7516774983       -0.0793439531
 H        1.6950789690        1.1161982367       -1.6482542044
 H        2.6059811254        1.1734143518       -0.0082302971
 H        0.6006960655        1.5034384489        1.3939018219
 H        0.8997046423        2.7819017262        0.0850604782
 H       -1.2807071995        1.7145849879       -1.0947513931
 H       -1.5945629215        2.1224457462        0.6812951920
 H       -0.4466230696       -2.0353317995        0.5217488355
 H       -3.4956272816       -0.2772407277        0.4952685072
 H       -2.9420128919       -1.6321195858       -0.4006781370
end 


